networks/opendss/CKT_3109_08662.dss
! OpenDSS script generated from multiconductor network
Clear

New Circuit.mc_network basekv=16.0 pu=1.000000 angle=0.00 frequency=60.0 phases=3 Mvasc3=255987 Mvasc1=85329.1
~ bus1=-8888882167611.1.2.3

! Line codes
New LineCode.2_CU_2PH_16KV_2 nphases=2 units=km Rmatrix=[ 1e-05 | 0 1e-05 ] Xmatrix=[ 1e-05 | 0 1e-05 ] Cmatrix=[ 0 | 0 0 ]
New LineCode.1/0_ATW_1PH_16KV_2 nphases=2 units=km Rmatrix=[ 1e-05 | 0 1e-05 ] Xmatrix=[ 1e-05 | 0 1e-05 ] Cmatrix=[ 0 | 0 0 ]
New LineCode.1/0_ATW_3PH_16KV_3 nphases=3 units=km Rmatrix=[ 1e-05 | 0 1e-05 | 0 0 1e-05 ] Xmatrix=[ 1e-05 | 0 1e-05 | 0 0 1e-05 ] Cmatrix=[ 0 | 0 0 | 0 0 0 ]
New LineCode.1/0_ACSR_2PH_16KV_2 nphases=2 units=km Rmatrix=[ 0.000849 | 0 0.000849 ] Xmatrix=[ 0.000676 | 0 0.000676 ] Cmatrix=[ 0 | 0 0 ]
New LineCode.2/0_CU_3PH_16KV_3 nphases=3 units=km Rmatrix=[ 0.008386 | 0 0.008386 | 0 0 0.008386 ] Xmatrix=[ 0.012934 | 0 0.012934 | 0 0 0.012934 ] Cmatrix=[ 0 | 0 0 | 0 0 0 ]
New LineCode.1/0_ATW_2PH_16KV_2 nphases=2 units=km Rmatrix=[ 1e-05 | 0 1e-05 ] Xmatrix=[ 1e-05 | 0 1e-05 ] Cmatrix=[ 0 | 0 0 ]
New LineCode.1000_CLP_3PH_16KV_3 nphases=3 units=km Rmatrix=[ 0.002093 | 0 0.002093 | 0 0 0.002093 ] Xmatrix=[ 0.003169 | 0 0.003169 | 0 0 0.003169 ] Cmatrix=[ 0 | 0 0 | 0 0 0 ]
New LineCode.2_CLP_3PH_16KV_3 nphases=3 units=km Rmatrix=[ 0.063866 | 0 0.063866 | 0 0 0.063866 ] Xmatrix=[ 0.013462 | 0 0.013462 | 0 0 0.013462 ] Cmatrix=[ 0 | 0 0 | 0 0 0 ]
New LineCode.2_CLP_2PH_16KV_2 nphases=2 units=km Rmatrix=[ 0.040932 | 0 0.040932 ] Xmatrix=[ 0.008628 | 0 0.008628 ] Cmatrix=[ 0 | 0 0 ]
New LineCode.1/0_CLP_3PH_16KV_3 nphases=3 units=km Rmatrix=[ 0.162495 | 0 0.162495 | 0 0 0.162495 ] Xmatrix=[ 0.049666 | 0 0.049666 | 0 0 0.049666 ] Cmatrix=[ 0 | 0 0 | 0 0 0 ]
New LineCode.1/0_JCN_2PH_16KV_2 nphases=2 units=km Rmatrix=[ 0.039338 | 0 0.039338 ] Xmatrix=[ 0.012024 | 0 0.012024 ] Cmatrix=[ 0 | 0 0 ]
New LineCode.1/0_JCN_3PH_16KV_3 nphases=3 units=km Rmatrix=[ 0.070759 | 0 0.070759 | 0 0 0.070759 ] Xmatrix=[ 0.021627 | 0 0.021627 | 0 0 0.021627 ] Cmatrix=[ 0 | 0 0 | 0 0 0 ]
New LineCode.1/0_AL_2PH_16KV_2 nphases=2 units=km Rmatrix=[ 0.016741 | 0 0.016741 ] Xmatrix=[ 0.005117 | 0 0.005117 ] Cmatrix=[ 0 | 0 0 ]
New LineCode.1/0_CLP_2PH_16KV_2 nphases=2 units=km Rmatrix=[ 0.077289 | 0 0.077289 ] Xmatrix=[ 0.023623 | 0 0.023623 ] Cmatrix=[ 0 | 0 0 ]
New LineCode.2_JCN_2PH_16KV_2 nphases=2 units=km Rmatrix=[ 0.256573 | 0 0.256573 ] Xmatrix=[ 0.054081 | 0 0.054081 ] Cmatrix=[ 0 | 0 0 ]
New LineCode.350_AL_3PH_16KV_3 nphases=3 units=km Rmatrix=[ 0.016798 | 0 0.016798 | 0 0 0.016798 ] Xmatrix=[ 0.012763 | 0 0.012763 | 0 0 0.012763 ] Cmatrix=[ 0 | 0 0 | 0 0 0 ]
New LineCode.750_CLP_3PH_16KV_3 nphases=3 units=km Rmatrix=[ 0.00666 | 0 0.00666 | 0 0 0.00666 ] Xmatrix=[ 0.008179 | 0 0.008179 | 0 0 0.008179 ] Cmatrix=[ 0 | 0 0 | 0 0 0 ]
New LineCode.2_CIC_2PH_16KV_2 nphases=2 units=km Rmatrix=[ 0.044054 | 0 0.044054 ] Xmatrix=[ 0.009286 | 0 0.009286 ] Cmatrix=[ 0 | 0 0 ]
New LineCode.336_ACSR_3PH_16KV_3 nphases=3 units=km Rmatrix=[ 0.050412 | 0 0.050412 | 0 0 0.050412 ] Xmatrix=[ 0.11289 | 0 0.11289 | 0 0 0.11289 ] Cmatrix=[ 0 | 0 0 | 0 0 0 ]
New LineCode.1/0_ACSR_3PH_16KV_3 nphases=3 units=km Rmatrix=[ 0.004782 | 0 0.004782 | 0 0 0.004782 ] Xmatrix=[ 0.003808 | 0 0.003808 | 0 0 0.003808 ] Cmatrix=[ 0 | 0 0 | 0 0 0 ]
New LineCode.4_ACSR_2PH_16KV_2 nphases=2 units=km Rmatrix=[ 0.136067 | 0 0.136067 ] Xmatrix=[ 0.049929 | 0 0.049929 ] Cmatrix=[ 0 | 0 0 ]
New LineCode.4_ACSR_3PH_16KV_3 nphases=3 units=km Rmatrix=[ 0.007045 | 0 0.007045 | 0 0 0.007045 ] Xmatrix=[ 0.002585 | 0 0.002585 | 0 0 0.002585 ] Cmatrix=[ 0 | 0 0 | 0 0 0 ]
New LineCode.4/0_ACSR_3PH_16KV_3 nphases=3 units=km Rmatrix=[ 0.000924 | 0 0.000924 | 0 0 0.000924 ] Xmatrix=[ 0.001305 | 0 0.001305 | 0 0 0.001305 ] Cmatrix=[ 0 | 0 0 | 0 0 0 ]
New LineCode.UNK_UNK_3PH_16KV_3 nphases=3 units=km Rmatrix=[ 0.002561 | 0 0.002561 | 0 0 0.002561 ] Xmatrix=[ 0.00054 | 0 0.00054 | 0 0 0.00054 ] Cmatrix=[ 0 | 0 0 | 0 0 0 ]
New LineCode.2_AL_3PH_16KV_3 nphases=3 units=km Rmatrix=[ 0.030727 | 0 0.030727 | 0 0 0.030727 ] Xmatrix=[ 0.006477 | 0 0.006477 | 0 0 0.006477 ] Cmatrix=[ 0 | 0 0 | 0 0 0 ]
New LineCode.2_AL_2PH_16KV_2 nphases=2 units=km Rmatrix=[ 0.077696 | 0 0.077696 ] Xmatrix=[ 0.016377 | 0 0.016377 ] Cmatrix=[ 0 | 0 0 ]
New LineCode.1000_JCN_3PH_16KV_3 nphases=3 units=km Rmatrix=[ 0.025227 | 0 0.025227 | 0 0 0.025227 ] Xmatrix=[ 0.038185 | 0 0.038185 | 0 0 0.038185 ] Cmatrix=[ 0 | 0 0 | 0 0 0 ]
New LineCode.750_JCN_3PH_16KV_3 nphases=3 units=km Rmatrix=[ 0.006532 | 0 0.006532 | 0 0 0.006532 ] Xmatrix=[ 0.008022 | 0 0.008022 | 0 0 0.008022 ] Cmatrix=[ 0 | 0 0 | 0 0 0 ]
New LineCode.350_JCN_3PH_16KV_3 nphases=3 units=km Rmatrix=[ 0.005819 | 0 0.005819 | 0 0 0.005819 ] Xmatrix=[ 0.004421 | 0 0.004421 | 0 0 0.004421 ] Cmatrix=[ 0 | 0 0 | 0 0 0 ]
New LineCode.2_ACSR_3PH_16KV_3 nphases=3 units=km Rmatrix=[ 0.006448 | 0 0.006448 | 0 0 0.006448 ] Xmatrix=[ 0.003467 | 0 0.003467 | 0 0 0.003467 ] Cmatrix=[ 0 | 0 0 | 0 0 0 ]
New LineCode.4_CU_3PH_16KV_3 nphases=3 units=km Rmatrix=[ 0.003647 | 0 0.003647 | 0 0 0.003647 ] Xmatrix=[ 0.001988 | 0 0.001988 | 0 0 0.001988 ] Cmatrix=[ 0 | 0 0 | 0 0 0 ]

! Lines
New Line.FD27144$BS1019-1 phases=2 Bus1=53843599.1.2 Bus2=53839112.1.2 LineCode=2_CU_2PH_16KV_2 Length=0.052362 units=km
New Line.963423E$963422E phases=2 Bus1=226521528.1.2 Bus2=53838318.1.2 LineCode=1/0_ATW_1PH_16KV_2 Length=0.052092 units=km
New Line.4558479E$963423E phases=2 Bus1=53838318.1.2 Bus2=53838343.1.2 LineCode=1/0_ATW_1PH_16KV_2 Length=0.174501 units=km
New Line.4082073E$ND226874365 phases=3 Bus1=53855435.1.2.3 Bus2=226874365.1.2.3 LineCode=1/0_ATW_3PH_16KV_3 Length=0.023074 units=km
New Line.ND226521548$4558479E phases=2 Bus1=53838343.1.2 Bus2=-77777753838343.1.2 LineCode=1/0_ATW_1PH_16KV_2 Length=0.026623 units=km
New Line.1323504E$ND238908246 phases=2 Bus1=53855647.1.3 Bus2=-77777753855647.1.3 LineCode=1/0_ACSR_2PH_16KV_2 Length=0.048282 units=km
New Line.PS0081$ND11458930 phases=3 Bus1=53857669.1.2.3 Bus2=-77777753857669.1.2.3 LineCode=2/0_CU_3PH_16KV_3 Length=0.096528 units=km
New Line.1096049E$ND239113628 phases=2 Bus1=104783112.1.2 Bus2=-777777104783112.1.2 LineCode=1/0_ACSR_2PH_16KV_2 Length=0.026277 units=km
New Line.4717461E$ND53858754 phases=3 Bus1=53858754.1.2.3 Bus2=53838618.1.2.3 LineCode=1/0_ATW_3PH_16KV_3 Length=0.028717 units=km
New Line.ND53858754$1005933E phases=3 Bus1=53858754.1.2.3 Bus2=53846357.1.2.3 LineCode=1/0_ATW_3PH_16KV_3 Length=0.089009 units=km
New Line.1005933E$1005932E phases=3 Bus1=53846357.1.2.3 Bus2=183662234.1.2.3 LineCode=1/0_ATW_3PH_16KV_3 Length=0.077581 units=km
New Line.4717461E$1223843E phases=3 Bus1=53838618.1.2.3 Bus2=53838643.1.2.3 LineCode=1/0_ATW_3PH_16KV_3 Length=0.104126 units=km
New Line.1005932E$BF02841 phases=3 Bus1=183662234.1.2.3 Bus2=211986587.1.2.3 LineCode=1/0_ATW_3PH_16KV_3 Length=0.029971 units=km
New Line.1223843E$1223840E phases=3 Bus1=53838643.1.2.3 Bus2=53838668.1.2.3 LineCode=1/0_ATW_3PH_16KV_3 Length=0.119898 units=km
New Line.1223840E$1223838E phases=3 Bus1=53838668.1.2.3 Bus2=136391588.1.2.3 LineCode=1/0_ATW_3PH_16KV_3 Length=0.07296 units=km
New Line.1005930E$BF02841 phases=3 Bus1=211986588.1.2.3 Bus2=53838493.1.2.3 LineCode=1/0_ATW_3PH_16KV_3 Length=0.018667 units=km
New Line.1223838E$4615520E phases=3 Bus1=136391588.1.2.3 Bus2=53843574.1.2.3 LineCode=1/0_ATW_3PH_16KV_3 Length=0.038978 units=km
New Line.1005930E$1005928E phases=3 Bus1=53838493.1.2.3 Bus2=108153795.1.2.3 LineCode=1/0_ATW_3PH_16KV_3 Length=0.085123 units=km
New Line.4615520E$ND53857913 phases=3 Bus1=53843574.1.2.3 Bus2=53857913.1.2.3 LineCode=1/0_ATW_3PH_16KV_3 Length=0.038149 units=km
New Line.BF01709$ND53873181 phases=2 Bus1=53873181.2.3 Bus2=166376695.2.3 LineCode=1/0_ATW_2PH_16KV_2 Length=0.004589 units=km
New Line.BF27398$ND200101298 phases=3 Bus1=53857262.1.2.3 Bus2=200101298.1.2.3 LineCode=1/0_ATW_3PH_16KV_3 Length=0.003042 units=km
New Line.ND53873181$BF02840 phases=3 Bus1=53873181.1.2.3 Bus2=211095459.1.2.3 LineCode=1/0_ATW_3PH_16KV_3 Length=0.004559 units=km
New Line.1005928E$1323638E phases=3 Bus1=108153795.1.2.3 Bus2=246548321.1.2.3 LineCode=1/0_ATW_3PH_16KV_3 Length=0.086386 units=km
New Line.ND53857913$1223834E phases=3 Bus1=53857913.1.2.3 Bus2=53846307.1.2.3 LineCode=1/0_ATW_3PH_16KV_3 Length=0.074536 units=km
New Line.963667E$BF27206 phases=2 Bus1=53821276.2.3 Bus2=53857158.2.3 LineCode=1/0_ATW_2PH_16KV_2 Length=0.010737 units=km
New Line.963416E$BF27062 phases=3 Bus1=53821266.1.2.3 Bus2=53857174.1.2.3 LineCode=1/0_ATW_3PH_16KV_3 Length=0.002598 units=km
New Line.1323638E$1323639E phases=3 Bus1=246548321.1.2.3 Bus2=53838543.1.2.3 LineCode=1/0_ATW_3PH_16KV_3 Length=0.040883 units=km
New Line.ND200101298$4647547E phases=2 Bus1=200101298.2.3 Bus2=53839463.2.3 LineCode=1/0_ATW_2PH_16KV_2 Length=0.048786 units=km
New Line.ND200101298$963507E phases=3 Bus1=200101298.1.2.3 Bus2=53839488.1.2.3 LineCode=1/0_ATW_3PH_16KV_3 Length=0.055581 units=km
New Line.1223834E$FD27144 phases=3 Bus1=53846307.1.2.3 Bus2=53843598.1.2.3 LineCode=1/0_ATW_3PH_16KV_3 Length=0.076667 units=km
New Line.BF02762$963419E phases=2 Bus1=53857175.1.2 Bus2=53838293.1.2 LineCode=1/0_ATW_2PH_16KV_2 Length=0.066785 units=km
New Line.BF27206$963668E phases=2 Bus1=53857159.2.3 Bus2=53838393.2.3 LineCode=1/0_ATW_2PH_16KV_2 Length=0.045555 units=km
New Line.1323639E$1323640E phases=3 Bus1=53838543.1.2.3 Bus2=53838568.1.2.3 LineCode=1/0_ATW_3PH_16KV_3 Length=0.018622 units=km
New Line.963662E$BF01709 phases=2 Bus1=166376696.2.3 Bus2=53839792.2.3 LineCode=1/0_ATW_2PH_16KV_2 Length=0.09088 units=km
New Line.963507E$4741566E phases=3 Bus1=53839488.1.2.3 Bus2=53856355.1.2.3 LineCode=1/0_ATW_3PH_16KV_3 Length=0.078681 units=km
New Line.BF02840$ND53858029 phases=3 Bus1=211095460.1.2.3 Bus2=53858029.1.2.3 LineCode=1/0_ATW_3PH_16KV_3 Length=0.003994 units=km
New Line.963419E$963422E phases=2 Bus1=53838293.1.2 Bus2=226521528.1.2 LineCode=1/0_ATW_2PH_16KV_2 Length=0.111311 units=km
New Line.1323640E$1323641E phases=3 Bus1=53838568.1.2.3 Bus2=228076066.1.2.3 LineCode=1/0_ATW_3PH_16KV_3 Length=0.055951 units=km
New Line.963668E$963670E phases=2 Bus1=53838393.2.3 Bus2=53838418.2.3 LineCode=1/0_ATW_2PH_16KV_2 Length=0.088719 units=km
New Line.963503E$4741566E phases=3 Bus1=53856355.1.2.3 Bus2=53839513.1.2.3 LineCode=1/0_ATW_3PH_16KV_3 Length=0.085782 units=km
New Line.963662E$963664E phases=2 Bus1=53839792.2.3 Bus2=53839817.2.3 LineCode=1/0_ATW_2PH_16KV_2 Length=0.115944 units=km
New Line.ND53858029$1165533E phases=2 Bus1=53858029.2.3 Bus2=53839842.2.3 LineCode=1/0_ATW_2PH_16KV_2 Length=0.019711 units=km
New Line.ND53858029$4741553E phases=3 Bus1=53858029.1.2.3 Bus2=53843040.1.2.3 LineCode=1/0_ATW_3PH_16KV_3 Length=0.051361 units=km
New Line.963670E$963672E phases=2 Bus1=53838418.2.3 Bus2=228076142.2.3 LineCode=1/0_ATW_2PH_16KV_2 Length=0.10537 units=km
New Line.963503E$963502E phases=3 Bus1=53839513.1.2.3 Bus2=231082626.1.2.3 LineCode=1/0_ATW_3PH_16KV_3 Length=0.046289 units=km
New Line.963664E$1006042 phases=2 Bus1=53839817.2.3 Bus2=231756813.2.3 LineCode=1/0_ATW_2PH_16KV_2 Length=0.101148 units=km
New Line.1323641E$1323644E phases=3 Bus1=228076066.1.2.3 Bus2=53838468.1.2.3 LineCode=1/0_ATW_3PH_16KV_3 Length=0.132923 units=km
New Line.1165533E$1165534E phases=2 Bus1=53839842.2.3 Bus2=53846257.2.3 LineCode=1/0_ATW_2PH_16KV_2 Length=0.037127 units=km
New Line.4741553E$ND53858334 phases=3 Bus1=53843040.1.2.3 Bus2=53858334.1.2.3 LineCode=1/0_ATW_3PH_16KV_3 Length=0.040474 units=km
New Line.963672E$963673E phases=2 Bus1=228076142.2.3 Bus2=53838443.2.3 LineCode=1/0_ATW_2PH_16KV_2 Length=0.0535 units=km
New Line.963502E$1041803E phases=3 Bus1=231082626.1.2.3 Bus2=53839538.1.2.3 LineCode=1/0_ATW_3PH_16KV_3 Length=0.077139 units=km
New Line.1006042$1006041E phases=2 Bus1=231756813.2.3 Bus2=53839767.2.3 LineCode=1/0_ATW_2PH_16KV_2 Length=0.047404 units=km
New Line.1165534E$1165536E phases=2 Bus1=53846257.2.3 Bus2=53839867.2.3 LineCode=1/0_ATW_2PH_16KV_2 Length=0.075053 units=km
New Line.ND53858334$4052369E phases=3 Bus1=53858334.1.2.3 Bus2=53855372.1.2.3 LineCode=1/0_ATW_3PH_16KV_3 Length=0.088269 units=km
New Line.ND53858334$ND53872594 phases=2 Bus1=53858334.2.3 Bus2=53872594.2.3 LineCode=1/0_ATW_2PH_16KV_2 Length=0.014919 units=km
New Line.1041803E$ND241661219 phases=3 Bus1=53839538.1.2.3 Bus2=241661219.1.2.3 LineCode=1/0_ATW_3PH_16KV_3 Length=0.066355 units=km
New Line.963673E$1130354E phases=2 Bus1=53838443.2.3 Bus2=53838368.2.3 LineCode=1/0_ATW_2PH_16KV_2 Length=0.136685 units=km
New Line.1165536E$1165539E phases=2 Bus1=53839867.2.3 Bus2=53839892.2.3 LineCode=1/0_ATW_2PH_16KV_2 Length=0.108345 units=km
New Line.ND53872594$1223926E phases=2 Bus1=53872594.2.3 Bus2=53839942.2.3 LineCode=1/0_ATW_2PH_16KV_2 Length=0.105491 units=km
New Line.4052369E$1165545E phases=3 Bus1=53855372.1.2.3 Bus2=53839967.1.2.3 LineCode=1/0_ATW_3PH_16KV_3 Length=0.072829 units=km
New Line.ND53872594$1165531E phases=2 Bus1=53872594.2.3 Bus2=53846282.2.3 LineCode=1/0_ATW_2PH_16KV_2 Length=0.039294 units=km
New Line.BF01708$ND53858847 phases=2 Bus1=53858847.1.3 Bus2=166376642.1.3 LineCode=1/0_ATW_2PH_16KV_2 Length=0.014057 units=km
New Line.1130354E$1130355E phases=2 Bus1=53838368.2.3 Bus2=228076088.2.3 LineCode=1/0_ATW_2PH_16KV_2 Length=0.065807 units=km
New Line.1165539E$1364174E phases=2 Bus1=53839892.2.3 Bus2=53839917.2.3 LineCode=1/0_ATW_2PH_16KV_2 Length=0.151932 units=km
New Line.1165545E$4082073E phases=3 Bus1=53839967.1.2.3 Bus2=53855435.1.2.3 LineCode=1/0_ATW_3PH_16KV_3 Length=0.077642 units=km
New Line.ND241661219$ND53857886 phases=3 Bus1=241661219.1.2.3 Bus2=53857886.1.2.3 LineCode=1/0_ATW_3PH_16KV_3 Length=0.147706 units=km
New Line.ND53857886$1323636E phases=2 Bus1=53857886.1.2 Bus2=53839588.1.2 LineCode=1/0_ATW_2PH_16KV_2 Length=0.074895 units=km
New Line.1323633E$1323515E phases=2 Bus1=136262503.1.3 Bus2=53846178.1.3 LineCode=1/0_ATW_2PH_16KV_2 Length=0.029332 units=km
New Line.ND53857886$ND53858680 phases=3 Bus1=53857886.1.2.3 Bus2=53858680.1.2.3 LineCode=1/0_ATW_3PH_16KV_3 Length=0.077056 units=km
New Line.ND53858680$114817E phases=2 Bus1=53858680.2.3 Bus2=227668766.2.3 LineCode=1/0_ATW_2PH_16KV_2 Length=0.003711 units=km
New Line.1323515E$1363262E phases=2 Bus1=53846178.1.3 Bus2=229951903.1.3 LineCode=1/0_ATW_2PH_16KV_2 Length=0.043976 units=km
New Line.4741554E$BF01708 phases=2 Bus1=166376643.1.3 Bus2=53840233.1.3 LineCode=1/0_ATW_2PH_16KV_2 Length=0.08071 units=km
New Line.ND53858179$ND226874365 phases=3 Bus1=226874365.1.2.3 Bus2=53858179.1.2.3 LineCode=1/0_ATW_3PH_16KV_3 Length=0.077893 units=km
New Line.ND53858680$ND53859515 phases=3 Bus1=53858680.1.2.3 Bus2=53859515.1.2.3 LineCode=1/0_ATW_3PH_16KV_3 Length=0.02743 units=km
New Line.4563108E$ND53859515 phases=3 Bus1=53859515.1.2.3 Bus2=210145696.1.2.3 LineCode=1/0_ATW_3PH_16KV_3 Length=0.078523 units=km
New Line.ND53859515$PS3976 phases=3 Bus1=53859515.1.2.3 Bus2=222829932.1.2.3 LineCode=1/0_ATW_3PH_16KV_3 Length=0.018014 units=km
New Line.1363262E$1363261E phases=2 Bus1=229951903.1.3 Bus2=53839563.1.3 LineCode=1/0_ATW_2PH_16KV_2 Length=0.039541 units=km
New Line.114817E$1323922E phases=2 Bus1=227668766.2.3 Bus2=53839638.2.3 LineCode=1/0_ATW_2PH_16KV_2 Length=0.071775 units=km
New Line.ND53858179$1172938E phases=3 Bus1=53858179.1.2.3 Bus2=53840017.1.2.3 LineCode=1/0_ATW_3PH_16KV_3 Length=0.017224 units=km
New Line.ND53858179$1223829E phases=3 Bus1=53858179.1.2.3 Bus2=53845980.1.2.3 LineCode=1/0_ATW_3PH_16KV_3 Length=0.090575 units=km
New Line.4741554E$1224159E phases=2 Bus1=53840233.1.3 Bus2=53846332.1.3 LineCode=1/0_ATW_2PH_16KV_2 Length=0.084425 units=km
New Line.1323922E$1323924E phases=2 Bus1=53839638.2.3 Bus2=53839613.2.3 LineCode=1/0_ATW_2PH_16KV_2 Length=0.054998 units=km
New Line.1172938E$1172936E phases=2 Bus1=53840017.1.2 Bus2=53840042.1.2 LineCode=1/0_ATW_2PH_16KV_2 Length=0.052955 units=km
New Line.1224159E$1224160E phases=2 Bus1=53846332.1.3 Bus2=53840258.1.3 LineCode=1/0_ATW_2PH_16KV_2 Length=0.133646 units=km
New Line.1223829E$1223830E phases=3 Bus1=53845980.1.2.3 Bus2=53843614.1.2.3 LineCode=1/0_ATW_3PH_16KV_3 Length=0.008718 units=km
New Line.1172936E$1172933E phases=2 Bus1=53840042.1.2 Bus2=53839992.1.2 LineCode=1/0_ATW_2PH_16KV_2 Length=0.097289 units=km
New Line.4563108E$ND53858341 phases=3 Bus1=210145695.1.2.3 Bus2=53858341.1.2.3 LineCode=1/0_ATW_3PH_16KV_3 Length=0.042837 units=km
New Line.ND53858341$4741552E phases=2 Bus1=53858341.1.2 Bus2=53839713.1.2 LineCode=1/0_ATW_2PH_16KV_2 Length=0.086845 units=km
New Line.4741552E$1095901E phases=2 Bus1=53839713.1.2 Bus2=222049346.1.2 LineCode=1/0_ATW_2PH_16KV_2 Length=0.045484 units=km
New Line.1095901E$1095903E phases=2 Bus1=222049346.1.2 Bus2=53839663.1.2 LineCode=1/0_ATW_2PH_16KV_2 Length=0.099292 units=km
New Line.1223926E$ND238908366 phases=2 Bus1=53839942.2.3 Bus2=-77777753839942.2.3 LineCode=1/0_ATW_2PH_16KV_2 Length=0.044468 units=km
New Line.1364174E$ND238908570 phases=2 Bus1=53839917.2.3 Bus2=-77777753839917.2.3 LineCode=1/0_ATW_2PH_16KV_2 Length=0.047868 units=km
New Line.1224160E$ND238908382 phases=2 Bus1=53840258.1.3 Bus2=-77777753840258.1.3 LineCode=1/0_ATW_2PH_16KV_2 Length=0.045017 units=km
New Line.08662$251E phases=3 Bus1=-8888882167611.1.2.3 Bus2=53855540.1.2.3 LineCode=1000_CLP_3PH_16KV_3 Length=0.019304 units=km
New Line.166181334$J948A-4P phases=3 Bus1=166181337.1.2.3 Bus2=166181230.1.2.3 LineCode=2_CLP_3PH_16KV_3 Length=0.016267 units=km
New Line.166181784$J950A-4P phases=2 Bus1=166181787.2.3 Bus2=167260874.2.3 LineCode=2_CLP_2PH_16KV_2 Length=0.018561 units=km
New Line.ND167934198$J945A-3P phases=2 Bus1=166180791.1.3 Bus2=167934198.1.3 LineCode=2_CLP_2PH_16KV_2 Length=0.062795 units=km
New Line.1541196E$GS0336-2 phases=3 Bus1=53803820.1.2.3 Bus2=53803883.1.2.3 LineCode=1000_CLP_3PH_16KV_3 Length=0.007112 units=km
New Line.GS0336-3$OS0337-2 phases=3 Bus1=53803899.1.2.3 Bus2=53804076.1.2.3 LineCode=1000_CLP_3PH_16KV_3 Length=0.442466 units=km
New Line.P5329450-1$GS0336-1 phases=3 Bus1=53803891.1.2.3 Bus2=53844296.1.2.3 LineCode=1/0_CLP_3PH_16KV_3 Length=0.258295 units=km
New Line.794458E$GS0336-4 phases=3 Bus1=53803907.1.2.3 Bus2=53803850.1.2.3 LineCode=1/0_CLP_3PH_16KV_3 Length=0.161443 units=km
New Line.ND166182051$J945A-4P phases=2 Bus1=166180799.2.3 Bus2=166182051.2.3 LineCode=1/0_JCN_2PH_16KV_2 Length=0.100274 units=km
New Line.1005789E$ND167934198 phases=2 Bus1=167934198.1.3 Bus2=53821241.1.3 LineCode=1/0_JCN_2PH_16KV_2 Length=0.092243 units=km
New Line.ND167934198$1172992E phases=2 Bus1=167934198.1.3 Bus2=53821254.1.3 LineCode=1/0_JCN_2PH_16KV_2 Length=0.091487 units=km
New Line.OS0337-3$237426637 phases=3 Bus1=53804084.1.2.3 Bus2=237426639.1.2.3 LineCode=1/0_JCN_3PH_16KV_3 Length=0.335085 units=km
New Line.OS0337-4$1640462E phases=3 Bus1=53804092.1.2.3 Bus2=53843904.1.2.3 LineCode=1000_CLP_3PH_16KV_3 Length=0.07883 units=km
New Line.237426637$P5762973-1 phases=3 Bus1=237426640.1.2.3 Bus2=237426563.1.2.3 LineCode=1/0_JCN_3PH_16KV_3 Length=0.00273 units=km
New Line.OS0337-5$237426610 phases=3 Bus1=53804100.1.2.3 Bus2=237426612.1.2.3 LineCode=2_CLP_3PH_16KV_3 Length=0.281267 units=km
New Line.B5179242-1$ND166182051 phases=2 Bus1=166182051.2.3 Bus2=53821599.2.3 LineCode=2_CLP_2PH_16KV_2 Length=0.031923 units=km
New Line.B5179177-1$ND166182051 phases=2 Bus1=166182051.2.3 Bus2=53821671.2.3 LineCode=2_CLP_2PH_16KV_2 Length=0.042342 units=km
New Line.J764A-1P$J756A-4P phases=3 Bus1=53822399.1.2.3 Bus2=53822046.1.2.3 LineCode=1/0_JCN_3PH_16KV_3 Length=0.07817 units=km
New Line.740420E$PMS0556-1 phases=2 Bus1=53855656.2.3 Bus2=53845332.2.3 LineCode=1/0_AL_2PH_16KV_2 Length=0.063955 units=km
New Line.J764A-3P$P5155745-1 phases=3 Bus1=53822407.1.2.3 Bus2=53855867.1.2.3 LineCode=2_CLP_3PH_16KV_3 Length=0.132555 units=km
New Line.J764A-4P$ND53859210 phases=2 Bus1=53822415.2.3 Bus2=53859210.2.3 LineCode=1/0_CLP_2PH_16KV_2 Length=0.021332 units=km
New Line.166181445$J948A-2P phases=3 Bus1=166181238.1.2.3 Bus2=166181448.1.2.3 LineCode=2_CLP_3PH_16KV_3 Length=0.002957 units=km
New Line.166181673$J950A-3P phases=2 Bus1=167260866.2.3 Bus2=166181676.2.3 LineCode=1/0_AL_2PH_16KV_2 Length=0.003035 units=km
New Line.B5008765-2$ND53859210 phases=2 Bus1=53859210.2.3 Bus2=53823546.2.3 LineCode=1/0_CLP_2PH_16KV_2 Length=0.039084 units=km
New Line.ND53859210$B5008763-1 phases=2 Bus1=53859210.2.3 Bus2=53823609.2.3 LineCode=1/0_CLP_2PH_16KV_2 Length=0.06898 units=km
New Line.237426610$P5436294-1 phases=3 Bus1=237426613.1.2.3 Bus2=53804321.1.2.3 LineCode=2_CLP_3PH_16KV_3 Length=0.001476 units=km
New Line.1640469E$OS0362-2 phases=3 Bus1=53843097.1.2.3 Bus2=53804436.1.2.3 LineCode=1000_CLP_3PH_16KV_3 Length=0.024731 units=km
New Line.OS0362-1$V5333113T1 phases=3 Bus1=53804427.1.2.3 Bus2=53856564.1.2.3 LineCode=2_CLP_3PH_16KV_3 Length=0.009671 units=km
New Line.PMS0556-1$P5448490-A phases=2 Bus1=53845333.2.3 Bus2=53845237.2.3 LineCode=1/0_AL_2PH_16KV_2 Length=0.010147 units=km
New Line.166181414$J948A-1P phases=2 Bus1=166181214.1.2 Bus2=166181553.1.2 LineCode=2_JCN_2PH_16KV_2 Length=0.084995 units=km
New Line.B5179243-2$B5179242-2 phases=2 Bus1=53821608.2.3 Bus2=53821536.2.3 LineCode=2_CLP_2PH_16KV_2 Length=0.099037 units=km
New Line.B5179178-2$B5179177-2 phases=2 Bus1=53821680.2.3 Bus2=53821752.2.3 LineCode=2_CLP_2PH_16KV_2 Length=0.085841 units=km
New Line.OS0362-3$ND53857804 phases=3 Bus1=53804445.1.2.3 Bus2=53857804.1.2.3 LineCode=1000_CLP_3PH_16KV_3 Length=0.021111 units=km
New Line.ND53857804$OS0361-2 phases=3 Bus1=53857804.1.2.3 Bus2=53804701.1.2.3 LineCode=1000_CLP_3PH_16KV_3 Length=0.321786 units=km
New Line.V5333113T1$P5436295-1 phases=3 Bus1=53856564.1.2.3 Bus2=53843052.1.2.3 LineCode=2_CLP_3PH_16KV_3 Length=0.100608 units=km
New Line.OS0362-5$1640472E phases=3 Bus1=53804463.1.2.3 Bus2=53843127.1.2.3 LineCode=350_AL_3PH_16KV_3 Length=0.075268 units=km
New Line.OS0362-6$P5329439-1 phases=3 Bus1=53804473.1.2.3 Bus2=53844344.1.2.3 LineCode=1/0_CLP_3PH_16KV_3 Length=0.147133 units=km
New Line.OS0361-1$J111-2P phases=3 Bus1=53804709.1.2.3 Bus2=257323084.1.2.3 LineCode=1/0_CLP_3PH_16KV_3 Length=0.050728 units=km
New Line.OS0361-3$ND53857740 phases=3 Bus1=53804717.1.2.3 Bus2=53857740.1.2.3 LineCode=750_CLP_3PH_16KV_3 Length=0.015068 units=km
New Line.ND53857740$1669620E phases=3 Bus1=53857740.1.2.3 Bus2=53843157.1.2.3 LineCode=750_CLP_3PH_16KV_3 Length=0.058914 units=km
New Line.OS0361-4$P5365559-1 phases=2 Bus1=53804725.1.3 Bus2=53855556.1.3 LineCode=2_CLP_2PH_16KV_2 Length=0.02194 units=km
New Line.J111-3P$V5333111 phases=3 Bus1=257323076.1.2.3 Bus2=257323180.1.2.3 LineCode=1/0_CLP_3PH_16KV_3 Length=0.002189 units=km
New Line.P5365558-1$J111-1P phases=3 Bus1=257323068.1.2.3 Bus2=53844392.1.2.3 LineCode=1/0_CLP_3PH_16KV_3 Length=0.024938 units=km
New Line.963416E$166181445 phases=3 Bus1=166181447.1.2.3 Bus2=53821267.1.2.3 LineCode=2_CLP_3PH_16KV_3 Length=0.045718 units=km
New Line.963667E$166181673 phases=2 Bus1=166181675.2.3 Bus2=53821277.2.3 LineCode=1/0_JCN_2PH_16KV_2 Length=0.036501 units=km
New Line.J756A-3P$BS0157-T phases=2 Bus1=53822038.1.3 Bus2=53855777.1.3 LineCode=1/0_JCN_2PH_16KV_2 Length=0.12164 units=km
New Line.166181414$P5182049-1 phases=2 Bus1=166181417.1.2 Bus2=166181483.1.2 LineCode=2_JCN_2PH_16KV_2 Length=0.001533 units=km
New Line.B5154826-2$J756A-2P phases=2 Bus1=53822054.1.3 Bus2=53822193.1.3 LineCode=2_CIC_2PH_16KV_2 Length=0.077697 units=km
New Line.107616368$681E phases=3 Bus1=53845140.1.2.3 Bus2=107616370.1.2.3 LineCode=2_CLP_3PH_16KV_3 Length=0.239427 units=km
New Line.1363977E$PS0063 phases=3 Bus1=53843218.1.2.3 Bus2=53856667.1.2.3 LineCode=336_ACSR_3PH_16KV_3 Length=0.0499 units=km
New Line.1363978E$P5616208-1 phases=3 Bus1=53843187.1.2.3 Bus2=53844440.1.2.3 LineCode=1/0_CLP_3PH_16KV_3 Length=0.125094 units=km
New Line.107616368$ND53855623 phases=3 Bus1=107616371.1.2.3 Bus2=53855601.1.2.3 LineCode=2_CLP_3PH_16KV_3 Length=0.008478 units=km
New Line.P5448490-B$ND53845324 phases=2 Bus1=53845228.2.3 Bus2=53845302.2.3 LineCode=1/0_AL_2PH_16KV_2 Length=0.023668 units=km
New Line.B5179179-2$B5179178-1 phases=2 Bus1=53821743.2.3 Bus2=53821824.2.3 LineCode=2_CLP_2PH_16KV_2 Length=0.052956 units=km
New Line.J756A-1P$B5008757-2 phases=2 Bus1=53822030.1.3 Bus2=53822337.1.3 LineCode=2_CIC_2PH_16KV_2 Length=0.054296 units=km
New Line.ND169248628$BS0157-L phases=2 Bus1=53855769.1.3 Bus2=169248628.1.3 LineCode=2_CLP_2PH_16KV_2 Length=0.008174 units=km
New Line.B5154819-1$BS0157-R phases=2 Bus1=53855760.1.3 Bus2=53842464.1.3 LineCode=2_CLP_2PH_16KV_2 Length=0.071045 units=km
New Line.1705208E$ND53859508 phases=3 Bus1=53806417.1.2.3 Bus2=53859508.1.2.3 LineCode=1/0_ACSR_3PH_16KV_3 Length=0.049801 units=km
New Line.963513E$ND217349433 phases=3 Bus1=53821289.1.2.3 Bus2=217349433.1.2.3 LineCode=336_ACSR_3PH_16KV_3 Length=0.002881 units=km
New Line.1323504E$ND53859508 phases=2 Bus1=53859508.1.3 Bus2=53855647.1.3 LineCode=1/0_ACSR_2PH_16KV_2 Length=0.058945 units=km
New Line.PS0125$251E phases=3 Bus1=53855539.1.2.3 Bus2=53856535.1.2.3 LineCode=336_ACSR_3PH_16KV_3 Length=0.063574 units=km
New Line.PS0125$1541196E phases=3 Bus1=53856536.1.2.3 Bus2=53790937.1.2.3 LineCode=336_ACSR_3PH_16KV_3 Length=0.34014 units=km
New Line.ND53859508$740420E phases=2 Bus1=53859508.2.3 Bus2=53855655.2.3 LineCode=1/0_ACSR_2PH_16KV_2 Length=0.049801 units=km
New Line.ND217349433$ND53858754 phases=3 Bus1=217349433.1.2.3 Bus2=53858754.1.2.3 LineCode=336_ACSR_3PH_16KV_3 Length=0.008367 units=km
New Line.ND53858754$PS3972 phases=3 Bus1=53858754.1.2.3 Bus2=223840568.1.2.3 LineCode=336_ACSR_3PH_16KV_3 Length=0.0949 units=km
New Line.738E$BF02752 phases=3 Bus1=53803849.1.2.3 Bus2=226555757.1.2.3 LineCode=1/0_ACSR_3PH_16KV_3 Length=0.001868 units=km
New Line.BF02752$794455E phases=3 Bus1=226555756.1.2.3 Bus2=209914397.1.2.3 LineCode=1/0_ACSR_3PH_16KV_3 Length=0.009169 units=km
New Line.794455E$794453E phases=3 Bus1=209914397.1.2.3 Bus2=53804284.1.2.3 LineCode=1/0_ACSR_3PH_16KV_3 Length=0.076458 units=km
New Line.922E$BF02831 phases=2 Bus1=53821253.1.3 Bus2=219870420.1.3 LineCode=1/0_ACSR_2PH_16KV_2 Length=0.040844 units=km
New Line.1005789E$1005790E phases=2 Bus1=53821240.1.3 Bus2=226556253.1.3 LineCode=4_ACSR_2PH_16KV_2 Length=0.097544 units=km
New Line.PS3972$ND206878350 phases=3 Bus1=223840569.1.2.3 Bus2=206878350.1.2.3 LineCode=336_ACSR_3PH_16KV_3 Length=0.035249 units=km
New Line.1640462E$1640464E phases=3 Bus1=53843903.1.2.3 Bus2=53804384.1.2.3 LineCode=336_ACSR_3PH_16KV_3 Length=0.1162 units=km
New Line.1640464E$1640469E phases=3 Bus1=53804384.1.2.3 Bus2=53843096.1.2.3 LineCode=336_ACSR_3PH_16KV_3 Length=0.270326 units=km
New Line.1005790E$1005791E phases=2 Bus1=226556253.1.3 Bus2=53843549.1.3 LineCode=4_ACSR_2PH_16KV_2 Length=0.03632 units=km
New Line.BF02831$1769016E phases=2 Bus1=219870421.1.3 Bus2=53821336.1.3 LineCode=1/0_ACSR_2PH_16KV_2 Length=0.015176 units=km
New Line.1640472E$PS0045 phases=3 Bus1=53843126.1.2.3 Bus2=29384572.1.2.3 LineCode=336_ACSR_3PH_16KV_3 Length=0.018457 units=km
New Line.1669620E$ND53857529 phases=3 Bus1=53843156.1.2.3 Bus2=53857529.1.2.3 LineCode=336_ACSR_3PH_16KV_3 Length=0.055992 units=km
New Line.ND53857529$1130358E phases=3 Bus1=53857529.1.2.3 Bus2=53846230.1.2.3 LineCode=336_ACSR_3PH_16KV_3 Length=0.039618 units=km
New Line.1130358E$1901250E phases=3 Bus1=53846230.1.2.3 Bus2=53804878.1.2.3 LineCode=336_ACSR_3PH_16KV_3 Length=0.2357 units=km
New Line.ND206878350$ND53858017 phases=3 Bus1=206878350.1.2.3 Bus2=53858017.1.2.3 LineCode=336_ACSR_3PH_16KV_3 Length=0.034186 units=km
New Line.ND53858017$963509E phases=3 Bus1=53858017.1.2.3 Bus2=53839740.1.2.3 LineCode=336_ACSR_3PH_16KV_3 Length=0.047774 units=km
New Line.ND53858017$BF27398 phases=3 Bus1=53858017.1.2.3 Bus2=53857252.1.2.3 LineCode=4_ACSR_3PH_16KV_3 Length=0.010352 units=km
New Line.1901250E$ND53859539 phases=3 Bus1=53804878.1.2.3 Bus2=53859539.1.2.3 LineCode=336_ACSR_3PH_16KV_3 Length=0.109162 units=km
New Line.ND53859539$681E phases=3 Bus1=53859539.1.2.3 Bus2=53845139.1.2.3 LineCode=336_ACSR_3PH_16KV_3 Length=0.039034 units=km
New Line.ND53859539$ND53858934 phases=3 Bus1=53859539.1.2.3 Bus2=53858934.1.2.3 LineCode=336_ACSR_3PH_16KV_3 Length=0.121653 units=km
New Line.ND53858934$1363978E phases=3 Bus1=53858934.1.2.3 Bus2=53843186.1.2.3 LineCode=336_ACSR_3PH_16KV_3 Length=0.028799 units=km
New Line.ND53858934$1363977E phases=3 Bus1=53858934.1.2.3 Bus2=53843218.1.2.3 LineCode=336_ACSR_3PH_16KV_3 Length=0.044549 units=km
New Line.PS0063$ND224147094 phases=3 Bus1=53856668.1.2.3 Bus2=224147094.1.2.3 LineCode=4/0_ACSR_3PH_16KV_3 Length=0.003116 units=km
New Line.963509E$ND53873181 phases=3 Bus1=53839740.1.2.3 Bus2=53873181.1.2.3 LineCode=336_ACSR_3PH_16KV_3 Length=0.045158 units=km
New Line.ND53857913$FD27143 phases=3 Bus1=53857913.1.2.3 Bus2=53843582.1.2.3 LineCode=4_ACSR_3PH_16KV_3 Length=0.001749 units=km
New Line.ND53873181$ND53874501 phases=3 Bus1=53873181.1.2.3 Bus2=53874501.1.2.3 LineCode=336_ACSR_3PH_16KV_3 Length=0.065079 units=km
New Line.ND53874501$4805438E phases=3 Bus1=53874501.1.2.3 Bus2=144786382.1.2.3 LineCode=1/0_ACSR_3PH_16KV_3 Length=0.052446 units=km
New Line.141197252$P5585244-1 phases=3 Bus1=141197255.1.2.3 Bus2=141197217.1.2.3 LineCode=UNK_UNK_3PH_16KV_3 Length=1e-05 units=km
New Line.B5155742-1$PH447 phases=2 Bus1=53804889.2.3 Bus2=53804905.2.3 LineCode=2_CLP_2PH_16KV_2 Length=0.0521 units=km
New Line.ND169248560$ND169248628 phases=2 Bus1=169248628.1.3 Bus2=169248560.1.3 LineCode=2_CLP_2PH_16KV_2 Length=0.011473 units=km
New Line.ND169248676$ND169248628 phases=2 Bus1=169248628.1.3 Bus2=169248676.1.3 LineCode=2_CIC_2PH_16KV_2 Length=0.071768 units=km
New Line.FD27143$ND53857872 phases=3 Bus1=53843583.1.2.3 Bus2=53857872.1.2.3 LineCode=2_AL_3PH_16KV_3 Length=0.027471 units=km
New Line.B5179180-2$B5179179-1 phases=2 Bus1=53821815.2.3 Bus2=53821896.2.3 LineCode=2_CLP_2PH_16KV_2 Length=0.112995 units=km
New Line.B5008757-1$B5008758-2 phases=2 Bus1=53822328.1.3 Bus2=53822265.1.3 LineCode=2_CIC_2PH_16KV_2 Length=0.081633 units=km
New Line.B5154823-2$ND169248560 phases=2 Bus1=169248560.1.3 Bus2=53822682.1.3 LineCode=2_CLP_2PH_16KV_2 Length=0.108259 units=km
New Line.B5008761-2$ND169248676 phases=2 Bus1=169248676.1.3 Bus2=53823258.1.3 LineCode=2_CIC_2PH_16KV_2 Length=0.02355 units=km
New Line.B5008766-1$ND169248676 phases=2 Bus1=169248676.1.3 Bus2=53823465.1.3 LineCode=2_CLP_2PH_16KV_2 Length=0.100338 units=km
New Line.B5155794-1$ND53857872 phases=2 Bus1=53857872.1.2 Bus2=53838752.1.2 LineCode=2_AL_2PH_16KV_2 Length=0.059974 units=km
New Line.B5155791-2$ND53857872 phases=2 Bus1=53857872.1.2 Bus2=53838905.1.2 LineCode=2_AL_2PH_16KV_2 Length=0.064901 units=km
New Line.FD27127$BS5596-1 phases=3 Bus1=53856160.1.2.3 Bus2=53805035.1.2.3 LineCode=2_CLP_3PH_16KV_3 Length=0.024791 units=km
New Line.4022462E$P5307355-1 phases=3 Bus1=53805213.1.2.3 Bus2=53844488.1.2.3 LineCode=2_CLP_3PH_16KV_3 Length=0.046172 units=km
New Line.1669512E$P5154843-1 phases=3 Bus1=53846636.1.2.3 Bus2=53846652.1.2.3 LineCode=2_CLP_3PH_16KV_3 Length=0.032349 units=km
...

! Switches
New Line.223782311$PDRSR0068-C phases=3 Bus1=223782271.1.2.3 Bus2=223782272.1.2.3 switch=y r1=0.001 x1=0.001 r0=0.001 x0=0.001 Length=0.001 units=km
New Line.5448489:PMS0556-1 phases=2 Bus1=53845332.2.3 Bus2=53845333.2.3 switch=y r1=0.001 x1=0.001 r0=0.001 x0=0.001 Length=0.001 units=km
New Line.1640472E:PS0045 phases=3 Bus1=29384572.1.2.3 Bus2=29384571.1.2.3 switch=y r1=0.001 x1=0.001 r0=0.001 x0=0.001 Length=0.001 units=km enabled=false
New Line.5333113:OS0362-4 phases=3 Bus1=53804408.1.2.3 Bus2=53804454.1.2.3 switch=y r1=0.001 x1=0.001 r0=0.001 x0=0.001 Length=0.001 units=km enabled=false
New Line.5333113:OS0362-5 phases=3 Bus1=53804414.1.2.3 Bus2=53804463.1.2.3 switch=y r1=0.001 x1=0.001 r0=0.001 x0=0.001 Length=0.001 units=km
New Line.902875E:53806324 phases=2 Bus1=53806326.2.3 Bus2=53806327.2.3 switch=y r1=0.001 x1=0.001 r0=0.001 x0=0.001 Length=0.001 units=km
New Line.740422E:53806374 phases=3 Bus1=53806376.1.2.3 Bus2=53806377.1.2.3 switch=y r1=0.001 x1=0.001 r0=0.001 x0=0.001 Length=0.001 units=km
New Line.1705208E:53806399 phases=3 Bus1=53806401.1.2.3 Bus2=53806402.1.2.3 switch=y r1=0.001 x1=0.001 r0=0.001 x0=0.001 Length=0.001 units=km
New Line.794455E:209914378 phases=3 Bus1=209914380.1.2.3 Bus2=209914381.1.2.3 switch=y r1=0.001 x1=0.001 r0=0.001 x0=0.001 Length=0.001 units=km
New Line.1323504E:53855629 phases=2 Bus1=53855631.1.3 Bus2=53855632.1.3 switch=y r1=0.001 x1=0.001 r0=0.001 x0=0.001 Length=0.001 units=km
New Line.4717461E:53838600 phases=3 Bus1=53838602.1.2.3 Bus2=53838603.1.2.3 switch=y r1=0.001 x1=0.001 r0=0.001 x0=0.001 Length=0.001 units=km
New Line.794453E:53804266 phases=3 Bus1=53804268.1.2.3 Bus2=53804269.1.2.3 switch=y r1=0.001 x1=0.001 r0=0.001 x0=0.001 Length=0.001 units=km
New Line.1640464E:53804364 phases=3 Bus1=53804366.1.2.3 Bus2=53804367.1.2.3 switch=y r1=0.001 x1=0.001 r0=0.001 x0=0.001 Length=0.001 units=km
New Line.1005933E:53846339 phases=3 Bus1=53846341.1.2.3 Bus2=53846342.1.2.3 switch=y r1=0.001 x1=0.001 r0=0.001 x0=0.001 Length=0.001 units=km
New Line.1005932E:183662215 phases=3 Bus1=183662217.1.2.3 Bus2=183662218.1.2.3 switch=y r1=0.001 x1=0.001 r0=0.001 x0=0.001 Length=0.001 units=km
New Line.1005790E:226556234 phases=2 Bus1=226556236.1.3 Bus2=226556237.1.3 switch=y r1=0.001 x1=0.001 r0=0.001 x0=0.001 Length=0.001 units=km
New Line.1223843E:53838625 phases=3 Bus1=53838627.1.2.3 Bus2=53838628.1.2.3 switch=y r1=0.001 x1=0.001 r0=0.001 x0=0.001 Length=0.001 units=km
New Line.1223840E:53838650 phases=3 Bus1=53838652.1.2.3 Bus2=53838653.1.2.3 switch=y r1=0.001 x1=0.001 r0=0.001 x0=0.001 Length=0.001 units=km
New Line.1005791E:53843531 phases=2 Bus1=53843533.1.3 Bus2=53843534.1.3 switch=y r1=0.001 x1=0.001 r0=0.001 x0=0.001 Length=0.001 units=km
New Line.1223838E:136391569 phases=3 Bus1=136391571.1.2.3 Bus2=136391572.1.2.3 switch=y r1=0.001 x1=0.001 r0=0.001 x0=0.001 Length=0.001 units=km
New Line.1769016E:53821318 phases=2 Bus1=53821320.1.3 Bus2=53821321.1.3 switch=y r1=0.001 x1=0.001 r0=0.001 x0=0.001 Length=0.001 units=km
New Line.1130358E:53846210 phases=3 Bus1=53846212.1.2.3 Bus2=53846213.1.2.3 switch=y r1=0.001 x1=0.001 r0=0.001 x0=0.001 Length=0.001 units=km
New Line.1901250E:53804858 phases=3 Bus1=53804860.1.2.3 Bus2=53804861.1.2.3 switch=y r1=0.001 x1=0.001 r0=0.001 x0=0.001 Length=0.001 units=km
New Line.1363977E:53843198 phases=3 Bus1=53843200.1.2.3 Bus2=53843201.1.2.3 switch=y r1=0.001 x1=0.001 r0=0.001 x0=0.001 Length=0.001 units=km
New Line.1005930E:53838475 phases=3 Bus1=53838477.1.2.3 Bus2=53838478.1.2.3 switch=y r1=0.001 x1=0.001 r0=0.001 x0=0.001 Length=0.001 units=km
New Line.963509E:53839720 phases=3 Bus1=53839722.1.2.3 Bus2=53839723.1.2.3 switch=y r1=0.001 x1=0.001 r0=0.001 x0=0.001 Length=0.001 units=km
New Line.4615520E:53843556 phases=3 Bus1=53843558.1.2.3 Bus2=53843559.1.2.3 switch=y r1=0.001 x1=0.001 r0=0.001 x0=0.001 Length=0.001 units=km
New Line.1005928E:108153776 phases=3 Bus1=108153778.1.2.3 Bus2=108153779.1.2.3 switch=y r1=0.001 x1=0.001 r0=0.001 x0=0.001 Length=0.001 units=km
New Line.1624868E:53804972 phases=3 Bus1=53804974.1.2.3 Bus2=53804975.1.2.3 switch=y r1=0.001 x1=0.001 r0=0.001 x0=0.001 Length=0.001 units=km
New Line.4209186E:53856235 phases=3 Bus1=53856237.1.2.3 Bus2=53856238.1.2.3 switch=y r1=0.001 x1=0.001 r0=0.001 x0=0.001 Length=0.001 units=km
New Line.1323638E:246548302 phases=3 Bus1=246548304.1.2.3 Bus2=246548305.1.2.3 switch=y r1=0.001 x1=0.001 r0=0.001 x0=0.001 Length=0.001 units=km
New Line.1223834E:53846289 phases=3 Bus1=53846291.1.2.3 Bus2=53846292.1.2.3 switch=y r1=0.001 x1=0.001 r0=0.001 x0=0.001 Length=0.001 units=km
New Line.4647547E:109241731 phases=2 Bus1=109241733.2.3 Bus2=109241734.2.3 switch=y r1=0.001 x1=0.001 r0=0.001 x0=0.001 Length=0.001 units=km
New Line.4805438E:144786363 phases=3 Bus1=144786365.1.2.3 Bus2=144786366.1.2.3 switch=y r1=0.001 x1=0.001 r0=0.001 x0=0.001 Length=0.001 units=km
New Line.4209185E:53846526 phases=3 Bus1=53846528.1.2.3 Bus2=53846529.1.2.3 switch=y r1=0.001 x1=0.001 r0=0.001 x0=0.001 Length=0.001 units=km
New Line.171321E:241904071 phases=3 Bus1=241904073.1.2.3 Bus2=241904074.1.2.3 switch=y r1=0.001 x1=0.001 r0=0.001 x0=0.001 Length=0.001 units=km
New Line.4209184E:53846497 phases=3 Bus1=53846499.1.2.3 Bus2=53846500.1.2.3 switch=y r1=0.001 x1=0.001 r0=0.001 x0=0.001 Length=0.001 units=km
New Line.1323639E:53838525 phases=3 Bus1=53838527.1.2.3 Bus2=53838528.1.2.3 switch=y r1=0.001 x1=0.001 r0=0.001 x0=0.001 Length=0.001 units=km
New Line.963507E:53839470 phases=3 Bus1=53839472.1.2.3 Bus2=53839473.1.2.3 switch=y r1=0.001 x1=0.001 r0=0.001 x0=0.001 Length=0.001 units=km
New Line.4741566E:135920675 phases=3 Bus1=135920677.1.2.3 Bus2=135920678.1.2.3 switch=y r1=0.001 x1=0.001 r0=0.001 x0=0.001 Length=0.001 units=km
New Line.4805439E:144786316 phases=3 Bus1=144786318.1.2.3 Bus2=144786319.1.2.3 switch=y r1=0.001 x1=0.001 r0=0.001 x0=0.001 Length=0.001 units=km
New Line.4611098E:53805001 phases=3 Bus1=53805003.1.2.3 Bus2=53805004.1.2.3 switch=y r1=0.001 x1=0.001 r0=0.001 x0=0.001 Length=0.001 units=km
New Line.4209187E:228668423 phases=2 Bus1=228668425.1.2 Bus2=228668426.1.2 switch=y r1=0.001 x1=0.001 r0=0.001 x0=0.001 Length=0.001 units=km
New Line.1992821E:53843277 phases=3 Bus1=53843279.1.2.3 Bus2=53843280.1.2.3 switch=y r1=0.001 x1=0.001 r0=0.001 x0=0.001 Length=0.001 units=km
New Line.775766E:53843227 phases=2 Bus1=53843229.1.2 Bus2=53843230.1.2 switch=y r1=0.001 x1=0.001 r0=0.001 x0=0.001 Length=0.001 units=km
New Line.963419E:53838275 phases=2 Bus1=53838277.1.2 Bus2=53838278.1.2 switch=y r1=0.001 x1=0.001 r0=0.001 x0=0.001 Length=0.001 units=km
New Line.963668E:53838375 phases=2 Bus1=53838377.2.3 Bus2=53838378.2.3 switch=y r1=0.001 x1=0.001 r0=0.001 x0=0.001 Length=0.001 units=km
New Line.1323640E:53838550 phases=3 Bus1=53838552.1.2.3 Bus2=53838553.1.2.3 switch=y r1=0.001 x1=0.001 r0=0.001 x0=0.001 Length=0.001 units=km
New Line.963662E:53839774 phases=2 Bus1=53839776.2.3 Bus2=53839777.2.3 switch=y r1=0.001 x1=0.001 r0=0.001 x0=0.001 Length=0.001 units=km
New Line.775774E:226135111 phases=2 Bus1=226135113.2.3 Bus2=226135114.2.3 switch=y r1=0.001 x1=0.001 r0=0.001 x0=0.001 Length=0.001 units=km
New Line.775767E:228668385 phases=2 Bus1=228668387.1.2 Bus2=228668388.1.2 switch=y r1=0.001 x1=0.001 r0=0.001 x0=0.001 Length=0.001 units=km
New Line.775768E:53843252 phases=2 Bus1=53843254.1.2 Bus2=53843255.1.2 switch=y r1=0.001 x1=0.001 r0=0.001 x0=0.001 Length=0.001 units=km
New Line.4438763E:53856362 phases=2 Bus1=53856364.2.3 Bus2=53856365.2.3 switch=y r1=0.001 x1=0.001 r0=0.001 x0=0.001 Length=0.001 units=km
New Line.1705019E:53805841 phases=3 Bus1=53805843.1.2.3 Bus2=53805844.1.2.3 switch=y r1=0.001 x1=0.001 r0=0.001 x0=0.001 Length=0.001 units=km
New Line.4209191E:53846472 phases=3 Bus1=53846474.1.2.3 Bus2=53846475.1.2.3 switch=y r1=0.001 x1=0.001 r0=0.001 x0=0.001 Length=0.001 units=km
New Line.4209189E:53846741 phases=2 Bus1=53846743.2.3 Bus2=53846744.2.3 switch=y r1=0.001 x1=0.001 r0=0.001 x0=0.001 Length=0.001 units=km
New Line.922201E:53805503 phases=3 Bus1=53805505.1.2.3 Bus2=53805506.1.2.3 switch=y r1=0.001 x1=0.001 r0=0.001 x0=0.001 Length=0.001 units=km
New Line.4209559E:53845937 phases=3 Bus1=53845939.1.2.3 Bus2=53845940.1.2.3 switch=y r1=0.001 x1=0.001 r0=0.001 x0=0.001 Length=0.001 units=km
New Line.902887E:53805528 phases=2 Bus1=53805530.1.2 Bus2=53805531.1.2 switch=y r1=0.001 x1=0.001 r0=0.001 x0=0.001 Length=0.001 units=km
New Line.963422E:226521509 phases=2 Bus1=226521511.1.2 Bus2=226521512.1.2 switch=y r1=0.001 x1=0.001 r0=0.001 x0=0.001 Length=0.001 units=km
New Line.1323641E:228076047 phases=3 Bus1=228076049.1.2.3 Bus2=228076050.1.2.3 switch=y r1=0.001 x1=0.001 r0=0.001 x0=0.001 Length=0.001 units=km
New Line.4805440E:241915890 phases=3 Bus1=241915892.1.2.3 Bus2=241915893.1.2.3 switch=y r1=0.001 x1=0.001 r0=0.001 x0=0.001 Length=0.001 units=km
New Line.775754E:53805237 phases=3 Bus1=53805239.1.2.3 Bus2=53805240.1.2.3 switch=y r1=0.001 x1=0.001 r0=0.001 x0=0.001 Length=0.001 units=km
New Line.902869E:53846716 phases=2 Bus1=53846718.1.2 Bus2=53846719.1.2 switch=y r1=0.001 x1=0.001 r0=0.001 x0=0.001 Length=0.001 units=km
New Line.902885E:53805478 phases=2 Bus1=53805480.1.2 Bus2=53805481.1.2 switch=y r1=0.001 x1=0.001 r0=0.001 x0=0.001 Length=0.001 units=km
New Line.1812179E:53855392 phases=3 Bus1=53855394.1.2.3 Bus2=53855395.1.2.3 switch=y r1=0.001 x1=0.001 r0=0.001 x0=0.001 Length=0.001 units=km
New Line.775752E:108153972 phases=3 Bus1=108153974.1.2.3 Bus2=108153975.1.2.3 switch=y r1=0.001 x1=0.001 r0=0.001 x0=0.001 Length=0.001 units=km
New Line.X13408E:53845665 phases=3 Bus1=53845667.1.2.3 Bus2=53845668.1.2.3 switch=y r1=0.001 x1=0.001 r0=0.001 x0=0.001 Length=0.001 units=km
New Line.963670E:53838400 phases=2 Bus1=53838402.2.3 Bus2=53838403.2.3 switch=y r1=0.001 x1=0.001 r0=0.001 x0=0.001 Length=0.001 units=km
New Line.963503E:53839495 phases=3 Bus1=53839497.1.2.3 Bus2=53839498.1.2.3 switch=y r1=0.001 x1=0.001 r0=0.001 x0=0.001 Length=0.001 units=km
New Line.963664E:53839799 phases=2 Bus1=53839801.2.3 Bus2=53839802.2.3 switch=y r1=0.001 x1=0.001 r0=0.001 x0=0.001 Length=0.001 units=km
New Line.1165533E:53839824 phases=2 Bus1=53839826.2.3 Bus2=53839827.2.3 switch=y r1=0.001 x1=0.001 r0=0.001 x0=0.001 Length=0.001 units=km
New Line.4741553E:53843022 phases=3 Bus1=53843024.1.2.3 Bus2=53843025.1.2.3 switch=y r1=0.001 x1=0.001 r0=0.001 x0=0.001 Length=0.001 units=km
New Line.1811864E:136644483 phases=3 Bus1=136644485.1.2.3 Bus2=136644486.1.2.3 switch=y r1=0.001 x1=0.001 r0=0.001 x0=0.001 Length=0.001 units=km
New Line.4161781E:53856264 phases=3 Bus1=53856266.1.2.3 Bus2=53856267.1.2.3 switch=y r1=0.001 x1=0.001 r0=0.001 x0=0.001 Length=0.001 units=km
New Line.1811867E:53805908 phases=3 Bus1=53805910.1.2.3 Bus2=53805911.1.2.3 switch=y r1=0.001 x1=0.001 r0=0.001 x0=0.001 Length=0.001 units=km
New Line.963672E:228076123 phases=2 Bus1=228076125.2.3 Bus2=228076126.2.3 switch=y r1=0.001 x1=0.001 r0=0.001 x0=0.001 Length=0.001 units=km
New Line.963502E:231082607 phases=3 Bus1=231082609.1.2.3 Bus2=231082610.1.2.3 switch=y r1=0.001 x1=0.001 r0=0.001 x0=0.001 Length=0.001 units=km
New Line.1006042:231756794 phases=2 Bus1=231756796.2.3 Bus2=231756797.2.3 switch=y r1=0.001 x1=0.001 r0=0.001 x0=0.001 Length=0.001 units=km
New Line.963423E:53838300 phases=2 Bus1=53838302.1.2 Bus2=53838303.1.2 switch=y r1=0.001 x1=0.001 r0=0.001 x0=0.001 Length=0.001 units=km
New Line.1323644E:53838450 phases=3 Bus1=53838452.1.2.3 Bus2=53838453.1.2.3 switch=y r1=0.001 x1=0.001 r0=0.001 x0=0.001 Length=0.001 units=km
New Line.1165534E:53846239 phases=2 Bus1=53846241.2.3 Bus2=53846242.2.3 switch=y r1=0.001 x1=0.001 r0=0.001 x0=0.001 Length=0.001 units=km
New Line.1812042E:53805933 phases=3 Bus1=53805935.1.2.3 Bus2=53805936.1.2.3 switch=y r1=0.001 x1=0.001 r0=0.001 x0=0.001 Length=0.001 units=km
New Line.4775446E:240837254 phases=2 Bus1=240837256.1.3 Bus2=240837257.1.3 switch=y r1=0.001 x1=0.001 r0=0.001 x0=0.001 Length=0.001 units=km
New Line.1041516E:53805983 phases=3 Bus1=53805985.1.2.3 Bus2=53805986.1.2.3 switch=y r1=0.001 x1=0.001 r0=0.001 x0=0.001 Length=0.001 units=km
New Line.1041514E:53806012 phases=3 Bus1=53806014.1.2.3 Bus2=53806015.1.2.3 switch=y r1=0.001 x1=0.001 r0=0.001 x0=0.001 Length=0.001 units=km
New Line.9345CWT:53805958 phases=2 Bus1=53805960.1.3 Bus2=53805961.1.3 switch=y r1=0.001 x1=0.001 r0=0.001 x0=0.001 Length=0.001 units=km
New Line.1041510E:53806041 phases=3 Bus1=53806043.1.2.3 Bus2=53806044.1.2.3 switch=y r1=0.001 x1=0.001 r0=0.001 x0=0.001 Length=0.001 units=km
New Line.851937E:53806070 phases=3 Bus1=53806072.1.2.3 Bus2=53806073.1.2.3 switch=y r1=0.001 x1=0.001 r0=0.001 x0=0.001 Length=0.001 units=km
New Line.4082174E:53846447 phases=3 Bus1=53846449.1.2.3 Bus2=53846450.1.2.3 switch=y r1=0.001 x1=0.001 r0=0.001 x0=0.001 Length=0.001 units=km
New Line.851939E:108154065 phases=3 Bus1=108154067.1.2.3 Bus2=108154068.1.2.3 switch=y r1=0.001 x1=0.001 r0=0.001 x0=0.001 Length=0.001 units=km
New Line.851925E:53843435 phases=3 Bus1=53843437.1.2.3 Bus2=53843438.1.2.3 switch=y r1=0.001 x1=0.001 r0=0.001 x0=0.001 Length=0.001 units=km
New Line.851923E:53843410 phases=3 Bus1=53843412.1.2.3 Bus2=53843413.1.2.3 switch=y r1=0.001 x1=0.001 r0=0.001 x0=0.001 Length=0.001 units=km
New Line.851922E:226989452 phases=3 Bus1=226989454.1.2.3 Bus2=226989455.1.2.3 switch=y r1=0.001 x1=0.001 r0=0.001 x0=0.001 Length=0.001 units=km
New Line.4167598E:53846555 phases=3 Bus1=53846557.1.2.3 Bus2=53846558.1.2.3 switch=y r1=0.001 x1=0.001 r0=0.001 x0=0.001 Length=0.001 units=km
New Line.776044E:53806174 phases=3 Bus1=53806176.1.2.3 Bus2=53806177.1.2.3 switch=y r1=0.001 x1=0.001 r0=0.001 x0=0.001 Length=0.001 units=km
New Line.4082039E:53806124 phases=3 Bus1=53806126.1.2.3 Bus2=53806127.1.2.3 switch=y r1=0.001 x1=0.001 r0=0.001 x0=0.001 Length=0.001 units=km
New Line.776045E:53806199 phases=3 Bus1=53806201.1.2.3 Bus2=53806202.1.2.3 switch=y r1=0.001 x1=0.001 r0=0.001 x0=0.001 Length=0.001 units=km
New Line.4761225E:53806224 phases=3 Bus1=53806226.1.2.3 Bus2=53806227.1.2.3 switch=y r1=0.001 x1=0.001 r0=0.001 x0=0.001 Length=0.001 units=km
New Line.1006148E:53843335 phases=3 Bus1=53843337.1.2.3 Bus2=53843338.1.2.3 switch=y r1=0.001 x1=0.001 r0=0.001 x0=0.001 Length=0.001 units=km
New Line.4775431E:53846609 phases=3 Bus1=53846611.1.2.3 Bus2=53846612.1.2.3 switch=y r1=0.001 x1=0.001 r0=0.001 x0=0.001 Length=0.001 units=km
New Line.1006150E:53843360 phases=3 Bus1=53843362.1.2.3 Bus2=53843363.1.2.3 switch=y r1=0.001 x1=0.001 r0=0.001 x0=0.001 Length=0.001 units=km
New Line.776048E:53806249 phases=3 Bus1=53806251.1.2.3 Bus2=53806252.1.2.3 switch=y r1=0.001 x1=0.001 r0=0.001 x0=0.001 Length=0.001 units=km
New Line.4805441E:144786261 phases=3 Bus1=144786263.1.2.3 Bus2=144786264.1.2.3 switch=y r1=0.001 x1=0.001 r0=0.001 x0=0.001 Length=0.001 units=km
New Line.4558479E:53838325 phases=2 Bus1=53838327.1.2 Bus2=53838328.1.2 switch=y r1=0.001 x1=0.001 r0=0.001 x0=0.001 Length=0.001 units=km
New Line.963673E:53838425 phases=2 Bus1=53838427.2.3 Bus2=53838428.2.3 switch=y r1=0.001 x1=0.001 r0=0.001 x0=0.001 Length=0.001 units=km
New Line.1041803E:53839520 phases=3 Bus1=53839522.1.2.3 Bus2=53839523.1.2.3 switch=y r1=0.001 x1=0.001 r0=0.001 x0=0.001 Length=0.001 units=km
New Line.1006041E:53839749 phases=2 Bus1=53839751.2.3 Bus2=53839752.2.3 switch=y r1=0.001 x1=0.001 r0=0.001 x0=0.001 Length=0.001 units=km
New Line.1165536E:53839849 phases=2 Bus1=53839851.2.3 Bus2=53839852.2.3 switch=y r1=0.001 x1=0.001 r0=0.001 x0=0.001 Length=0.001 units=km
New Line.1041507E:53843385 phases=3 Bus1=53843387.1.2.3 Bus2=53843388.1.2.3 switch=y r1=0.001 x1=0.001 r0=0.001 x0=0.001 Length=0.001 units=km
New Line.4052369E:53855354 phases=3 Bus1=53855356.1.2.3 Bus2=53855357.1.2.3 switch=y r1=0.001 x1=0.001 r0=0.001 x0=0.001 Length=0.001 units=km
New Line.1130354E:53838350 phases=2 Bus1=53838352.2.3 Bus2=53838353.2.3 switch=y r1=0.001 x1=0.001 r0=0.001 x0=0.001 Length=0.001 units=km
New Line.1165539E:53839874 phases=2 Bus1=53839876.2.3 Bus2=53839877.2.3 switch=y r1=0.001 x1=0.001 r0=0.001 x0=0.001 Length=0.001 units=km
New Line.1223926E:53839924 phases=2 Bus1=53839926.2.3 Bus2=53839927.2.3 switch=y r1=0.001 x1=0.001 r0=0.001 x0=0.001 Length=0.001 units=km
New Line.1165545E:53839949 phases=3 Bus1=53839951.1.2.3 Bus2=53839952.1.2.3 switch=y r1=0.001 x1=0.001 r0=0.001 x0=0.001 Length=0.001 units=km
New Line.1165531E:53846264 phases=2 Bus1=53846266.2.3 Bus2=53846267.2.3 switch=y r1=0.001 x1=0.001 r0=0.001 x0=0.001 Length=0.001 units=km
New Line.1323633E:136262484 phases=2 Bus1=136262486.1.3 Bus2=136262487.1.3 switch=y r1=0.001 x1=0.001 r0=0.001 x0=0.001 Length=0.001 units=km
New Line.1130355E:228076094 phases=2 Bus1=228076096.2.3 Bus2=228076097.2.3 switch=y r1=0.001 x1=0.001 r0=0.001 x0=0.001 Length=0.001 units=km
New Line.1364174E:53839899 phases=2 Bus1=53839901.2.3 Bus2=53839902.2.3 switch=y r1=0.001 x1=0.001 r0=0.001 x0=0.001 Length=0.001 units=km
New Line.1095955E:53840161 phases=3 Bus1=53840163.1.2.3 Bus2=53840164.1.2.3 switch=y r1=0.001 x1=0.001 r0=0.001 x0=0.001 Length=0.001 units=km
New Line.4082073E:53855417 phases=3 Bus1=53855419.1.2.3 Bus2=53855420.1.2.3 switch=y r1=0.001 x1=0.001 r0=0.001 x0=0.001 Length=0.001 units=km
New Line.740428E:53806274 phases=3 Bus1=53806276.1.2.3 Bus2=53806277.1.2.3 switch=y r1=0.001 x1=0.001 r0=0.001 x0=0.001 Length=0.001 units=km
New Line.740427E:53806299 phases=3 Bus1=53806301.1.2.3 Bus2=53806302.1.2.3 switch=y r1=0.001 x1=0.001 r0=0.001 x0=0.001 Length=0.001 units=km
New Line.1323636E:53839570 phases=2 Bus1=53839572.1.2 Bus2=53839573.1.2 switch=y r1=0.001 x1=0.001 r0=0.001 x0=0.001 Length=0.001 units=km
New Line.1095954E:53845640 phases=3 Bus1=53845642.1.2.3 Bus2=53845643.1.2.3 switch=y r1=0.001 x1=0.001 r0=0.001 x0=0.001 Length=0.001 units=km
New Line.1323515E:53846160 phases=2 Bus1=53846162.1.3 Bus2=53846163.1.3 switch=y r1=0.001 x1=0.001 r0=0.001 x0=0.001 Length=0.001 units=km
New Line.4741554E:135920761 phases=2 Bus1=135920763.1.3 Bus2=135920764.1.3 switch=y r1=0.001 x1=0.001 r0=0.001 x0=0.001 Length=0.001 units=km
New Line.114817E:227668747 phases=2 Bus1=227668749.2.3 Bus2=227668750.2.3 switch=y r1=0.001 x1=0.001 r0=0.001 x0=0.001 Length=0.001 units=km
New Line.1363262E:229951884 phases=2 Bus1=229951886.1.3 Bus2=229951887.1.3 switch=y r1=0.001 x1=0.001 r0=0.001 x0=0.001 Length=0.001 units=km
New Line.1768910E:53806149 phases=3 Bus1=53806151.1.2.3 Bus2=53806152.1.2.3 switch=y r1=0.001 x1=0.001 r0=0.001 x0=0.001 Length=0.001 units=km
New Line.1901295E:53845585 phases=3 Bus1=53845587.1.2.3 Bus2=53845588.1.2.3 switch=y r1=0.001 x1=0.001 r0=0.001 x0=0.001 Length=0.001 units=km
New Line.1095953E:53840136 phases=3 Bus1=53840138.1.2.3 Bus2=53840139.1.2.3 switch=y r1=0.001 x1=0.001 r0=0.001 x0=0.001 Length=0.001 units=km
New Line.1363261E:53839545 phases=2 Bus1=53839547.1.3 Bus2=53839548.1.3 switch=y r1=0.001 x1=0.001 r0=0.001 x0=0.001 Length=0.001 units=km
New Line.1323922E:53839620 phases=2 Bus1=53839622.2.3 Bus2=53839623.2.3 switch=y r1=0.001 x1=0.001 r0=0.001 x0=0.001 Length=0.001 units=km
New Line.1172938E:53839999 phases=3 Bus1=53840001.1.2.3 Bus2=53840002.1.2.3 switch=y r1=0.001 x1=0.001 r0=0.001 x0=0.001 Length=0.001 units=km
New Line.1223829E:53845962 phases=3 Bus1=53845964.1.2.3 Bus2=53845965.1.2.3 switch=y r1=0.001 x1=0.001 r0=0.001 x0=0.001 Length=0.001 units=km
New Line.1224159E:53846314 phases=2 Bus1=53846316.1.3 Bus2=53846317.1.3 switch=y r1=0.001 x1=0.001 r0=0.001 x0=0.001 Length=0.001 units=km
New Line.4785184E:243490710 phases=3 Bus1=243490712.1.2.3 Bus2=243490713.1.2.3 switch=y r1=0.001 x1=0.001 r0=0.001 x0=0.001 Length=0.001 units=km
New Line.740423E:53806349 phases=3 Bus1=53806351.1.2.3 Bus2=53806352.1.2.3 switch=y r1=0.001 x1=0.001 r0=0.001 x0=0.001 Length=0.001 units=km
New Line.1323924E:53839595 phases=2 Bus1=53839597.2.3 Bus2=53839598.2.3 switch=y r1=0.001 x1=0.001 r0=0.001 x0=0.001 Length=0.001 units=km
New Line.1172936E:53840024 phases=2 Bus1=53840026.1.2 Bus2=53840027.1.2 switch=y r1=0.001 x1=0.001 r0=0.001 x0=0.001 Length=0.001 units=km
New Line.1224160E:53840240 phases=2 Bus1=53840242.1.3 Bus2=53840243.1.3 switch=y r1=0.001 x1=0.001 r0=0.001 x0=0.001 Length=0.001 units=km
New Line.1172933E:53839974 phases=2 Bus1=53839976.1.2 Bus2=53839977.1.2 switch=y r1=0.001 x1=0.001 r0=0.001 x0=0.001 Length=0.001 units=km
New Line.1096049E:104783093 phases=2 Bus1=104783095.1.2 Bus2=104783096.1.2 switch=y r1=0.001 x1=0.001 r0=0.001 x0=0.001 Length=0.001 units=km
New Line.4741552E:53839695 phases=2 Bus1=53839697.1.2 Bus2=53839698.1.2 switch=y r1=0.001 x1=0.001 r0=0.001 x0=0.001 Length=0.001 units=km
New Line.1095901E:222049327 phases=2 Bus1=222049329.1.2 Bus2=222049330.1.2 switch=y r1=0.001 x1=0.001 r0=0.001 x0=0.001 Length=0.001 units=km
New Line.1095903E:53839645 phases=2 Bus1=53839647.1.2 Bus2=53839648.1.2 switch=y r1=0.001 x1=0.001 r0=0.001 x0=0.001 Length=0.001 units=km
New Line.166181784 phases=2 Bus1=166181786.2.3 Bus2=166181787.2.3 switch=y r1=0.001 x1=0.001 r0=0.001 x0=0.001 Length=0.001 units=km
New Line.53822396$53822420 phases=3 Bus1=53822424.1.2.3 Bus2=53822400.1.2.3 switch=y r1=0.001 x1=0.001 r0=0.001 x0=0.001 Length=0.001 units=km
New Line.53822420$53822404 phases=3 Bus1=53822424.1.2.3 Bus2=53822408.1.2.3 switch=y r1=0.001 x1=0.001 r0=0.001 x0=0.001 Length=0.001 units=km
New Line.GS0336-1$53803881 phases=3 Bus1=53803864.1.2.3 Bus2=53803863.1.2.3 switch=y r1=0.001 x1=0.001 r0=0.001 x0=0.001 Length=0.001 units=km
New Line.53803881$53803897 phases=3 Bus1=53803864.1.2.3 Bus2=53803870.1.2.3 switch=y r1=0.001 x1=0.001 r0=0.001 x0=0.001 Length=0.001 units=km
New Line.53803897$GS0336-4 phases=3 Bus1=53803870.1.2.3 Bus2=53803876.1.2.3 switch=y r1=0.001 x1=0.001 r0=0.001 x0=0.001 Length=0.001 units=km
New Line.OS0337-1$53804074 phases=3 Bus1=53804043.1.2.3 Bus2=53804042.1.2.3 switch=y r1=0.001 x1=0.001 r0=0.001 x0=0.001 Length=0.001 units=km
New Line.53804074$OS0337-3 phases=3 Bus1=53804043.1.2.3 Bus2=53804049.1.2.3 switch=y r1=0.001 x1=0.001 r0=0.001 x0=0.001 Length=0.001 units=km
New Line.166181219$166181227 phases=3 Bus1=166181231.1.2.3 Bus2=166181223.1.2.3 switch=y r1=0.001 x1=0.001 r0=0.001 x0=0.001 Length=0.001 units=km
New Line.53822404$53822412 phases=3 Bus1=53822408.1.2.3 Bus2=53822416.1.2.3 switch=y r1=0.001 x1=0.001 r0=0.001 x0=0.001 Length=0.001 units=km
New Line.166181235$166181219 phases=3 Bus1=166181223.1.2.3 Bus2=166181239.1.2.3 switch=y r1=0.001 x1=0.001 r0=0.001 x0=0.001 Length=0.001 units=km
New Line.167260863$167260871 phases=3 Bus1=167260875.1.2.3 Bus2=167260867.1.2.3 switch=y r1=0.001 x1=0.001 r0=0.001 x0=0.001 Length=0.001 units=km
New Line.OS0337-3$53804090 phases=3 Bus1=53804049.1.2.3 Bus2=53804055.1.2.3 switch=y r1=0.001 x1=0.001 r0=0.001 x0=0.001 Length=0.001 units=km
New Line.53804090$OS0337-5 phases=3 Bus1=53804055.1.2.3 Bus2=53804061.1.2.3 switch=y r1=0.001 x1=0.001 r0=0.001 x0=0.001 Length=0.001 units=km
New Line.237426637 phases=3 Bus1=237426639.1.2.3 Bus2=237426640.1.2.3 switch=y r1=0.001 x1=0.001 r0=0.001 x0=0.001 Length=0.001 units=km
New Line.237426610 phases=3 Bus1=237426612.1.2.3 Bus2=237426613.1.2.3 switch=y r1=0.001 x1=0.001 r0=0.001 x0=0.001 Length=0.001 units=km
New Line.166181211$166181235 phases=3 Bus1=166181239.1.2.3 Bus2=166181215.1.2.3 switch=y r1=0.001 x1=0.001 r0=0.001 x0=0.001 Length=0.001 units=km
New Line.167260879$167260863 phases=3 Bus1=167260867.1.2.3 Bus2=167260883.1.2.3 switch=y r1=0.001 x1=0.001 r0=0.001 x0=0.001 Length=0.001 units=km
New Line.167260855$167260879 phases=3 Bus1=167260883.1.2.3 Bus2=167260859.1.2.3 switch=y r1=0.001 x1=0.001 r0=0.001 x0=0.001 Length=0.001 units=km
New Line.53822035$53822043 phases=3 Bus1=53822047.1.2.3 Bus2=53822039.1.2.3 switch=y r1=0.001 x1=0.001 r0=0.001 x0=0.001 Length=0.001 units=km
New Line.OS0362-1$53804434 phases=3 Bus1=53804396.1.2.3 Bus2=53804395.1.2.3 switch=y r1=0.001 x1=0.001 r0=0.001 x0=0.001 Length=0.001 units=km
New Line.53804434$53804443 phases=3 Bus1=53804396.1.2.3 Bus2=53804402.1.2.3 switch=y r1=0.001 x1=0.001 r0=0.001 x0=0.001 Length=0.001 units=km
New Line.53804443$53804452 phases=3 Bus1=53804402.1.2.3 Bus2=53804408.1.2.3 switch=y r1=0.001 x1=0.001 r0=0.001 x0=0.001 Length=0.001 units=km
New Line.53804452$53804461 phases=3 Bus1=53804408.1.2.3 Bus2=53804414.1.2.3 switch=y r1=0.001 x1=0.001 r0=0.001 x0=0.001 Length=0.001 units=km
New Line.166181445 phases=3 Bus1=166181448.1.2.3 Bus2=166181447.1.2.3 switch=y r1=0.001 x1=0.001 r0=0.001 x0=0.001 Length=0.001 units=km
New Line.166181673 phases=2 Bus1=166181676.2.3 Bus2=166181675.2.3 switch=y r1=0.001 x1=0.001 r0=0.001 x0=0.001 Length=0.001 units=km
New Line.53822051$53822035 phases=3 Bus1=53822039.1.2.3 Bus2=53822055.1.2.3 switch=y r1=0.001 x1=0.001 r0=0.001 x0=0.001 Length=0.001 units=km
New Line.53804461$OS0362-6 phases=3 Bus1=53804414.1.2.3 Bus2=53804420.1.2.3 switch=y r1=0.001 x1=0.001 r0=0.001 x0=0.001 Length=0.001 units=km
New Line.OS0361-1$53804699 phases=3 Bus1=53804682.1.2.3 Bus2=53804681.1.2.3 switch=y r1=0.001 x1=0.001 r0=0.001 x0=0.001 Length=0.001 units=km
New Line.53804699$53804715 phases=3 Bus1=53804682.1.2.3 Bus2=53804688.1.2.3 switch=y r1=0.001 x1=0.001 r0=0.001 x0=0.001 Length=0.001 units=km
New Line.53804715$OS0361-4 phases=3 Bus1=53804688.1.2.3 Bus2=53804694.1.2.3 switch=y r1=0.001 x1=0.001 r0=0.001 x0=0.001 Length=0.001 units=km
New Line.257323065$257323081 phases=3 Bus1=257323085.1.2.3 Bus2=257323069.1.2.3 switch=y r1=0.001 x1=0.001 r0=0.001 x0=0.001 Length=0.001 units=km
New Line.257323081$257323073 phases=3 Bus1=257323085.1.2.3 Bus2=257323077.1.2.3 switch=y r1=0.001 x1=0.001 r0=0.001 x0=0.001 Length=0.001 units=km
New Line.166181414 phases=2 Bus1=166181553.1.2 Bus2=166181417.1.2 switch=y r1=0.001 x1=0.001 r0=0.001 x0=0.001 Length=0.001 units=km
New Line.53822027$53822051 phases=3 Bus1=53822055.1.2.3 Bus2=53822031.1.2.3 switch=y r1=0.001 x1=0.001 r0=0.001 x0=0.001 Length=0.001 units=km
New Line.107616368 phases=3 Bus1=107616370.1.2.3 Bus2=107616371.1.2.3 switch=y r1=0.001 x1=0.001 r0=0.001 x0=0.001 Length=0.001 units=km
New Line.53845309$P5448498 phases=3 Bus1=53845302.1.2.3 Bus2=53845303.1.2.3 switch=y r1=0.001 x1=0.001 r0=0.001 x0=0.001 Length=0.001 units=km
New Line.53855608$P5007570 phases=3 Bus1=53855601.1.2.3 Bus2=53855602.1.2.3 switch=y r1=0.001 x1=0.001 r0=0.001 x0=0.001 Length=0.001 units=km
New Line.53805089$P5405597 phases=3 Bus1=53805082.1.2.3 Bus2=53805083.1.2.3 switch=y r1=0.001 x1=0.001 r0=0.001 x0=0.001 Length=0.001 units=km
New Line.241984138 phases=3 Bus1=241984140.1.2.3 Bus2=241984141.1.2.3 switch=y r1=0.001 x1=0.001 r0=0.001 x0=0.001 Length=0.001 units=km
New Line.223782183$PDRSR0262-B phases=3 Bus1=223782143.1.2.3 Bus2=223782131.1.2.3 switch=y r1=0.001 x1=0.001 r0=0.001 x0=0.001 Length=0.001 units=km
New Line.223782183$PDRSR0262-C phases=3 Bus1=223782143.1.2.3 Bus2=223782144.1.2.3 switch=y r1=0.001 x1=0.001 r0=0.001 x0=0.001 Length=0.001 units=km
New Line.PDRSR0262-B$RSR0262 phases=3 Bus1=223782132.1.2.3 Bus2=223782125.1.2.3 switch=y r1=0.001 x1=0.001 r0=0.001 x0=0.001 Length=0.001 units=km
New Line.223782187$PDRSR0262-C phases=3 Bus1=223782162.1.2.3 Bus2=223782161.1.2.3 switch=y r1=0.001 x1=0.001 r0=0.001 x0=0.001 Length=0.001 units=km
New Line.223782187$PDRSR0262-D phases=3 Bus1=223782161.1.2.3 Bus2=223782137.1.2.3 switch=y r1=0.001 x1=0.001 r0=0.001 x0=0.001 Length=0.001 units=km
New Line.RSR0262$PDRSR0262-D phases=3 Bus1=223782126.1.2.3 Bus2=223782138.1.2.3 switch=y r1=0.001 x1=0.001 r0=0.001 x0=0.001 Length=0.001 units=km
New Line.GS0203-1$228075870 phases=3 Bus1=228075844.1.2.3 Bus2=228075843.1.2.3 switch=y r1=0.001 x1=0.001 r0=0.001 x0=0.001 Length=0.001 units=km
New Line.228075870$GS0203-3 phases=3 Bus1=228075844.1.2.3 Bus2=228075850.1.2.3 switch=y r1=0.001 x1=0.001 r0=0.001 x0=0.001 Length=0.001 units=km
New Line.GS0203-3$228075888 phases=3 Bus1=228075850.1.2.3 Bus2=228075856.1.2.3 switch=y r1=0.001 x1=0.001 r0=0.001 x0=0.001 Length=0.001 units=km
New Line.108437883$108437907 phases=3 Bus1=108437887.1.2.3 Bus2=108437911.1.2.3 switch=y r1=0.001 x1=0.001 r0=0.001 x0=0.001 Length=0.001 units=km
New Line.108437907$108437891 phases=3 Bus1=108437911.1.2.3 Bus2=108437895.1.2.3 switch=y r1=0.001 x1=0.001 r0=0.001 x0=0.001 Length=0.001 units=km
New Line.223782311$PDRSR0068-B phases=3 Bus1=223782271.1.2.3 Bus2=223782278.1.2.3 switch=y r1=0.001 x1=0.001 r0=0.001 x0=0.001 Length=0.001 units=km
New Line.PDRSR0068-B$RSR0068 phases=3 Bus1=223782283.1.2.3 Bus2=223782265.1.2.3 switch=y r1=0.001 x1=0.001 r0=0.001 x0=0.001 Length=0.001 units=km
...

! Loads
New Load.851937E_0 Bus1=-99999953806073.1.0 phases=1 kV=0.069282 kW=0 kvar=0 model=1
New Load.851937E_1 Bus1=-99999953806073.2.0 phases=1 kV=0.069282 kW=0 kvar=0 model=1
New Load.5155776_0 Bus1=-99999953823034.3.0 phases=1 kV=0.069282 kW=0 kvar=0 model=1
New Load.5155776_1 Bus1=-99999953823034.1.0 phases=1 kV=0.069282 kW=0 kvar=0 model=1
New Load.5436296_0 Bus1=-99999953845725.1.0 phases=1 kV=0.159926 kW=0 kvar=0 model=1
New Load.5436296_1 Bus1=-99999953845725.2.0 phases=1 kV=0.159926 kW=0 kvar=0 model=1
...